@<TRIPOS>MOLECULE
lig
 20 19 0 0 0
SMALL
GASTEIGER

@<TRIPOS>ATOM
      1 S           2.2423    0.3131   -3.2065 S.3     1  UNL11      -0.1762
      2 C           1.5069   -0.6325   -1.8630 C.3     1  UNL11       0.0144
      3 H           0.4531   -0.8099   -2.0780 H       1  UNL11       0.0394
      4 H           2.0235   -1.5873   -1.7654 H       1  UNL11       0.0394
      5 C           1.6356    0.1530   -0.5564 C.3     1  UNL11       0.0911
      6 H           2.6894    0.3305   -0.3415 H       1  UNL11       0.0562
      7 N           0.9426    1.4337   -0.6873 N.3     1  UNL11      -0.3193
      8 H           1.0286    1.9584    0.1855 H       1  UNL11       0.1189
      9 H          -0.0454    1.2673   -0.8889 H       1  UNL11       0.1189
     10 C           1.0391   -0.6139    0.5333 C.2     1  UNL11       0.2313
     11 O           1.7388   -1.4150    1.1899 O.2     1  UNL11      -0.2741
     12 H          -0.6935    0.3935    0.6724 H       1  UNL11       0.1497
     13 N          -0.2585   -0.4591    0.8296 N.am    1  UNL11      -0.3032
     14 C          -0.9916   -1.5355    1.3700 C.3     1  UNL11       0.0733
     15 H          -1.3819   -1.2546    2.3482 H       1  UNL11       0.0599
     16 H          -0.3399   -2.4030    1.4742 H       1  UNL11       0.0599
     17 C          -2.0265   -1.8424    0.5394 C.1     1  UNL11      -0.0866
     18 H          -3.6343   -2.3191   -0.7511 H       1  UNL11       0.1228
     19 C          -2.9337   -2.1114   -0.1888 C.1     1  UNL11      -0.1176
     20 H           2.1279   -0.3851   -4.3680 H       1  UNL11       0.1017
@<TRIPOS>BOND
     1     2     3    1
     2     2     4    1
     3     1     2    1
     4     5     6    1
     5     2     5    1
     6     7     8    1
     7     7     9    1
     8     5     7    1
     9    10     5    1
    10    10    11    2
    11    12    13    1
    12    10    13   am
    13    14    15    1
    14    14    16    1
    15    13    14    1
    16    14    17    1
    17    18    19    1
    18    17    19    3
    19     1    20    1
