#
#	File Created by: Spartan'24 Export
#

@<TRIPOS>MOLECULE
M0001
20 19
SMALL
NO_CHARGES


@<TRIPOS>ATOM
    1   S1         1.738931592     4.577569612     2.499347855     S.3   1  noname
    2   C2         1.787301780     2.755147283     2.440278522     C.3   1  noname
    3   H3         2.719102658     2.429843703     1.962001386       H   1  noname
    4   H4         1.793663749     2.373863145     3.467845494       H   1  noname
    5   C5         0.578662405     2.191163062     1.676631852     C.3   1  noname
    6   H6        -0.358186575     2.521416422     2.142595616       H   1  noname
    7   N7         0.553995796     2.598687344     0.241692446     N.3   1  noname
    8   H8        -0.370156729     2.368044077    -0.131926480       H   1  noname
    9   H9         0.613642591     3.618703760     0.199223177       H   1  noname
   10   C10        0.616303283     0.653060465     1.795927220     C.2   1  noname
   11   O11        0.618051251     0.075310836     2.878970290     O.2   1  noname
   12   H12        0.917023243     0.576121111    -0.201910772       H   1  noname
   13   N13        0.647798998    -0.005064081     0.588289108    N.am   1  noname
   14   C14        0.863688030    -1.425386491     0.521571260     C.3   1  noname
   15   H15        1.883568718    -1.628589624     0.865040605       H   1  noname
   16   H16        0.172168436    -1.923823500     1.209017574       H   1  noname
   17   C17        0.671879019    -1.893317420    -0.852968899     C.1   1  noname
   18   H18        0.375312739    -2.618038438    -2.980503085       H   1  noname
   19   C19        0.515470560    -2.276353144    -1.980727700     C.1   1  noname
   20   H20        2.860131879     4.842336384     3.175886452       H   1  noname


@<TRIPOS>BOND
    1      2      3    1
    2      2      4    1
    3      1      2    1
    4      5      6    1
    5      2      5    1
    6      7      8    1
    7      7      9    1
    8      5      7    1
    9     10      5    1
   10     10     11    2
   11     12     13    1
   12     10     13    am
   13     14     15    1
   14     14     16    1
   15     13     14    1
   16     14     17    1
   17     18     19    1
   18     17     19    3
   19      1     20    1
